pcf
* control data
restart estimation
   35    1       3     0   1
   3     1       single point   1    0    0
   0.0   2.0     0.3    0.03    1
   3.0   3.0     0.001
   0.1
   30    0.01    3      3       0.01     3
   0     0       0
* singular value decomposition
1
11 5e-7
0
* group definitions and derivative data
grad    relative    0.01    0.0      always_2    2.0    parabolic
surf    relative    0.01    0.0      always_2    2.0    parabolic
soil    relative    0.01    0.0      always_2    2.0    parabolic
* parameter data
             pgrl             none           factor     1.093152e+00         0.800000         1.200000             grad         1.000000         0.000000                1
             pcor              log           factor     1.149526e+00            1.000           1.3000             grad         1.000000         0.000000                1
             scor              log           factor     1.093270e+00          0.80000           1.1000             grad         1.000000         0.000000                1
             tdry              log           factor     4.359467e-01          0.40000           0.8000             grad        -1.000000         0.000000                1
             epol              log           factor     3.887867e-04            1e-05            1e-03             surf         1.000000         0.000000                1
             klak              log           factor     9.443803e-05            1e-05            1e-02             grad         1.000000         0.000000                1
             epo0              log           factor     7.519285e-04            1e-05            1e-03             surf         1.000000         0.000000                1
             ate0             none           factor     3.721105e+00         2.000000         5.000000             surf         1.000000        -4.000000                1
             mte0             none           factor     2.544989e+00         2.000000         5.000000             surf         1.000000        -4.000000                1
             sme0              log           factor     3.539081e-03            1e-04         0.010000             surf         1.000000         0.000000                1
             fca0              log           factor     2.504515e-01         0.200000         0.500000             soil         1.000000         0.000000                1
             bet0              log           factor     3.595786e+00         1.500000         4.000000             soil         1.000000         0.000000                1
             kuz0              log           factor     4.633912e-01           0.4000         0.700000             soil         1.000000         0.000000                1
             alf0              log           factor     1.127368e+00         1.000000         1.400000             soil         1.000000         0.000000                1
             per0              log           factor     1.852791e-02            1e-04         0.050000             soil         1.000000         0.000000                1
             klz0              log           factor     2.150775e-01            1e-03         0.300000             soil         1.000000         0.000000                1
             epo1              log           factor     8.623662e-04            1e-05            1e-03             surf         1.000000         0.000000                1
             ate1             none           factor     2.146597e+00         2.000000         5.000000             surf         1.000000        -4.000000                1
             mte1             none           factor     2.157140e+00         2.000000         6.000000             surf         1.000000        -4.000000                1
             sme1              log           factor     7.334431e-03            1e-04         0.010000             surf         1.000000         0.000000                1
             fca1              log           factor     2.209173e-01         0.100000         0.400000             soil         1.000000         0.000000                1
             bet1              log           factor     3.638060e+00         1.500000         4.000000             soil         1.000000         0.000000                1
             kuz1              log           factor     4.059527e-01           0.4000         0.700000             soil         1.000000         0.000000                1
             alf1              log           factor     2.257547e+00         1.000000         2.400000             soil         1.000000         0.000000                1
             per1              log           factor     8.471721e-03            1e-04         0.050000             soil         1.000000         0.000000                1
             klz1              log           factor     6.865291e-02            1e-03         0.100000             soil         1.000000         0.000000                1
             ateg             none           factor     4.466474e+00         2.000000         5.000000             surf         1.000000        -4.000000                1
             mteg             none           factor     4.911104e+00         2.000000         6.000000             surf         1.000000        -4.000000                1
             smeg              log           factor     5.406667e-03            1e-04         0.010000             surf         1.000000         0.000000                1
             imrg              log           factor     1.062772e+00         0.800000         1.200000             surf         1.000000         0.000000                1
             betg              log           factor     4.795385e+00         1.500000         5.000000             soil         1.000000         0.000000                1
             kuzg              log           factor     8.580901e-01           0.7000         1.000000             soil         1.000000         0.000000                1
             alfg              log           factor     1.702590e+00          1.00000         2.400000             soil         1.000000         0.000000                1
             perg              log           factor     5.312780e-04            1e-04         0.050000             soil         1.000000         0.000000                1
             klzg              log           factor     3.385067e-02            1e-03         0.100000             soil         1.000000         0.000000                1
* observation groups
sim
* observation data
aaaaa                1      1.000000    sim
* model command line
./start_cal.sh
* model input/output
./Pars_0/hbv_common_parameters.tpl hbv_common_parameters.txt
./Pars_0/hbv_landsurface_parameters.tpl hbv_landsurface_parameters.txt
./Pars_0/hbv_soil_parameters.tpl hbv_soil_parameters.txt
./Pars_0/obj_ins  run_obj.txt
* prior information
