pcf
* control data
restart estimation
   35    1       3     0   1
   3     1       single point   1    0    0
   0.0   2.0     0.3    0.03    1
   3.0   3.0     0.001
   0.1
   30    0.01    3      3       0.01     3
   0     0       0
* singular value decomposition
1
11 5e-7
0
* group definitions and derivative data
grad    relative    0.01    0.0      always_2    2.0    parabolic
surf    relative    0.01    0.0      always_2    2.0    parabolic
soil    relative    0.01    0.0      always_2    2.0    parabolic
* parameter data
             pgrl             none           factor     9.290158e-01         0.800000         1.200000             grad         1.000000         0.000000                1
             pcor              log           factor     1.098388e+00            1.000           1.3000             grad         1.000000         0.000000                1
             scor              log           factor     9.708738e-01          0.80000           1.1000             grad         1.000000         0.000000                1
             tdry              log           factor     5.587481e-01          0.40000           0.8000             grad        -1.000000         0.000000                1
             epol              log           factor     5.629571e-04            1e-05            1e-03             surf         1.000000         0.000000                1
             klak              log           factor     2.707621e-03            1e-05            1e-02             grad         1.000000         0.000000                1
             epo0              log           factor     4.489085e-04            1e-05            1e-03             surf         1.000000         0.000000                1
             ate0             none           factor     2.895773e+00         2.000000         5.000000             surf         1.000000        -4.000000                1
             mte0             none           factor     3.136228e+00         2.000000         5.000000             surf         1.000000        -4.000000                1
             sme0              log           factor     1.460878e-03            1e-04         0.010000             surf         1.000000         0.000000                1
             fca0              log           factor     2.413136e-01         0.200000         0.500000             soil         1.000000         0.000000                1
             bet0              log           factor     2.199136e+00         1.500000         4.000000             soil         1.000000         0.000000                1
             kuz0              log           factor     6.665768e-01           0.4000         0.700000             soil         1.000000         0.000000                1
             alf0              log           factor     1.172580e+00         1.000000         1.400000             soil         1.000000         0.000000                1
             per0              log           factor     1.195086e-02            1e-04         0.050000             soil         1.000000         0.000000                1
             klz0              log           factor     2.942114e-01            1e-03         0.300000             soil         1.000000         0.000000                1
             epo1              log           factor     9.040765e-04            1e-05            1e-03             surf         1.000000         0.000000                1
             ate1             none           factor     2.296243e+00         2.000000         5.000000             surf         1.000000        -4.000000                1
             mte1             none           factor     2.239003e+00         2.000000         6.000000             surf         1.000000        -4.000000                1
             sme1              log           factor     4.026380e-03            1e-04         0.010000             surf         1.000000         0.000000                1
             fca1              log           factor     1.138560e-01         0.100000         0.400000             soil         1.000000         0.000000                1
             bet1              log           factor     1.643993e+00         1.500000         4.000000             soil         1.000000         0.000000                1
             kuz1              log           factor     5.751602e-01           0.4000         0.700000             soil         1.000000         0.000000                1
             alf1              log           factor     2.087578e+00         1.000000         2.400000             soil         1.000000         0.000000                1
             per1              log           factor     3.618589e-02            1e-04         0.050000             soil         1.000000         0.000000                1
             klz1              log           factor     2.687519e-02            1e-03         0.100000             soil         1.000000         0.000000                1
             ateg             none           factor     3.700933e+00         2.000000         5.000000             surf         1.000000        -4.000000                1
             mteg             none           factor     5.914690e+00         2.000000         6.000000             surf         1.000000        -4.000000                1
             smeg              log           factor     9.145759e-03            1e-04         0.010000             surf         1.000000         0.000000                1
             imrg              log           factor     1.064077e+00         0.800000         1.200000             surf         1.000000         0.000000                1
             betg              log           factor     4.855368e+00         1.500000         5.000000             soil         1.000000         0.000000                1
             kuzg              log           factor     9.277076e-01           0.7000         1.000000             soil         1.000000         0.000000                1
             alfg              log           factor     1.512842e+00          1.00000         2.400000             soil         1.000000         0.000000                1
             perg              log           factor     1.493459e-02            1e-04         0.050000             soil         1.000000         0.000000                1
             klzg              log           factor     9.589032e-02            1e-03         0.100000             soil         1.000000         0.000000                1
* observation groups
sim
* observation data
aaaaa                1      1.000000    sim
* model command line
./start_cal.sh
* model input/output
./Pars_0/hbv_common_parameters.tpl hbv_common_parameters.txt
./Pars_0/hbv_landsurface_parameters.tpl hbv_landsurface_parameters.txt
./Pars_0/hbv_soil_parameters.tpl hbv_soil_parameters.txt
./Pars_0/obj_ins  run_obj.txt
* prior information
